Version 4
SHEET 1 3164 980
WIRE 1392 128 1280 128
WIRE 1472 128 1392 128
WIRE 2096 128 1472 128
WIRE 2320 128 2096 128
WIRE 2432 128 2400 128
WIRE 2480 128 2432 128
WIRE 2576 128 2544 128
WIRE 2672 128 2576 128
WIRE 2800 128 2672 128
WIRE 1280 144 1280 128
WIRE 1472 144 1472 128
WIRE 2672 144 2672 128
WIRE 2096 176 2096 128
WIRE 2432 224 2432 128
WIRE 2672 224 2672 208
WIRE 1280 240 1280 224
WIRE 1472 240 1472 224
WIRE 1920 240 1472 240
WIRE 2288 240 2272 240
WIRE 2368 240 2352 240
WIRE 1472 256 1472 240
WIRE 1920 304 1840 304
WIRE 2384 304 2272 304
WIRE 2576 304 2576 128
WIRE 1392 336 1392 128
WIRE 2800 336 2800 128
WIRE 2800 336 2704 336
WIRE 1472 352 1472 336
WIRE 2800 352 2800 336
WIRE 1920 368 1904 368
WIRE 2432 368 2432 320
WIRE 2432 368 2272 368
WIRE 2432 384 2432 368
WIRE 2576 400 2576 384
WIRE 2576 400 2528 400
WIRE 2576 416 2576 400
WIRE 1392 432 1392 416
WIRE 1920 432 1392 432
WIRE 1392 448 1392 432
WIRE 2800 448 2800 432
WIRE 2800 448 2736 448
WIRE 2800 480 2800 448
WIRE 1712 496 1696 496
WIRE 1824 496 1776 496
WIRE 1920 496 1904 496
WIRE 2528 496 2528 400
WIRE 2528 496 2272 496
WIRE 2576 512 2576 496
WIRE 1392 544 1392 528
WIRE 1776 560 1760 560
WIRE 1920 560 1840 560
WIRE 2704 560 2704 336
WIRE 2704 560 2272 560
WIRE 2800 608 2800 544
WIRE 1824 624 1760 624
WIRE 1920 624 1904 624
WIRE 2736 624 2736 448
WIRE 2736 624 2272 624
WIRE 1920 688 1744 688
WIRE 2752 688 2272 688
WIRE 2800 720 2800 704
WIRE 2096 768 2096 752
WIRE 1744 976 1744 688
WIRE 2288 976 2288 240
WIRE 2288 976 1744 976
FLAG 2368 240 0
FLAG 2432 464 0
FLAG 2576 512 0
FLAG 2672 224 0
FLAG 1280 240 0
FLAG 1472 352 0
FLAG 1696 496 0
FLAG 2800 720 0
FLAG 1760 560 0
FLAG 1760 624 0
FLAG 2096 768 0
FLAG 1280 128 IN
FLAG 1392 544 0
FLAG 1840 304 0
SYMBOL cap 2288 256 R270
WINDOW 0 32 32 VTop 2
WINDOW 3 0 32 VBottom 2
SYMATTR InstName C1
SYMATTR Value 0.8
SYMBOL nmos 2384 224 R0
SYMATTR InstName Q1
SYMATTR Value Si7850DP
SYMBOL res 2416 368 R0
SYMATTR InstName R1
SYMATTR Value 15m
SYMBOL ind 2304 144 R270
WINDOW 0 32 56 VTop 2
WINDOW 3 5 56 VBottom 2
SYMATTR InstName L1
SYMATTR Value 8.5
SYMATTR SpiceLine Rser=.1
SYMBOL res 2560 288 R0
SYMATTR InstName R2
SYMATTR Value 10000K
SYMBOL res 2560 400 R0
SYMATTR InstName R3
SYMATTR Value 23.7K
SYMBOL schottky 2480 144 R270
WINDOW 0 32 32 VTop 2
WINDOW 3 0 32 VBottom 2
SYMATTR InstName D1
SYMATTR Value MBRS360
SYMATTR Description Diode
SYMATTR Type diode
SYMBOL res 2784 336 R0
SYMATTR InstName R4
SYMATTR Value 0.66
SYMBOL cap 2656 144 R0
SYMATTR InstName C2
SYMATTR Value 15
SYMATTR SpiceLine Rser=.005
SYMBOL voltage 1280 128 R0
WINDOW 123 0 0 Left 2
WINDOW 39 0 0 Left 2
SYMATTR InstName V1
SYMATTR Value 12
SYMBOL res 1456 128 R0
SYMATTR InstName R5
SYMATTR Value 499K
SYMBOL res 1456 240 R0
SYMATTR InstName R6
SYMATTR Value 90.9K
SYMBOL cap 1776 480 R90
WINDOW 0 0 32 VBottom 2
WINDOW 3 29 32 VTop 2
WINDOW 39 50 32 VTop 2
SYMATTR InstName C3
SYMATTR Value 0.0022
SYMBOL nmos 2752 608 R0
SYMATTR InstName Q2
SYMATTR Value Si7850DP
SYMBOL LED 2784 480 R0
WINDOW 3 29 67 Left 2
WINDOW 123 23 95 Left 2
SYMATTR Value MLE
SYMATTR Value2 N=8
SYMATTR InstName D2
SYMATTR Description Diode
SYMATTR Type diode
SYMBOL cap 1840 544 R90
WINDOW 0 0 32 VBottom 2
WINDOW 3 32 32 VTop 2
SYMATTR InstName C4
SYMATTR Value 0.01
SYMBOL res 1920 608 R90
WINDOW 0 0 56 VBottom 2
WINDOW 3 32 56 VTop 2
SYMATTR InstName R7
SYMATTR Value 26.7k
SYMBOL res 1376 320 R0
SYMATTR InstName R9
SYMATTR Value 1000k
SYMBOL res 1376 432 R0
SYMATTR InstName R10
SYMATTR Value 133k
SYMBOL res 1920 480 R90
WINDOW 0 0 56 VBottom 2
WINDOW 3 32 56 VTop 2
SYMATTR InstName R11
SYMATTR Value 100K
SYMBOL PowerProducts\\LT3755-1 2096 464 R0
SYMATTR InstName U1
TEXT 2472 736 Left 0 !.tran 8m startup
TEXT 2112 80 Bottom 0 ;LT3755-1 - 40VIN 75VLED High Current LED Driver Controller with Sync\nInput: 8V to 40V       Output: 50VLED @ 1A  fsync = 400kHz
TEXT 1560 800 Left 0 ;Note:\n  If the simulation model is not found please update with the "Sync Release" command from the "Tools" menu.\n  It remains the customer's responsibility to verify proper and reliable operation in the actual application.\n  Component substitution and printed circuit board layout may significantly affect circuit performance or reliability.\n  Contact your local sales representative for assistance. This circuit is distributed to customers only for use with LTC parts.\n  Copyright  2008 Linear Technology Inc. All rights reserved.
TEXT 2872 -40 Left 2 !.MODEL MLE D\n+ IS=1.7448E-21\n+ N=2.4195\n+ RS=2.1425\n+ XTI=45.900\n+ EG=2.5000
TEXT 2856 152 Left 2 ;.step param NLEDS 8 24 16
